Info: SIMULATION PARAMETERS:
Info: TIMESTEP               2
Info: NUMBER OF STEPS        0
Info: STEPS PER CYCLE        20
Info: FIRST LDB TIMESTEP     100
Info: LAST LDB TIMESTEP     -1
Info: HOM BACKGROUND SCALING 1
Info: MIN ATOMS PER PATCH    40
Info: INITIAL TEMPERATURE    300
Info: CENTER OF MASS MOVING INITIALLY? NO
Info: DIELECTRIC             1
Info: EXCLUDE                SCALED ONE-FOUR
Info: 1-4 ELECTROSTATICS SCALED BY 1
Info: MODIFIED 1-4 VDW PARAMETERS WILL BE USED
Info: DCD FILENAME           smd_out.dcd
Info: DCD FREQUENCY          50
Info: DCD FIRST STEP         50
Info: NO EXTENDED SYSTEM TRAJECTORY OUTPUT
Info: NO VELOCITY DCD OUTPUT
Info: NO FORCE DCD OUTPUT
Info: OUTPUT FILENAME        smd_out
Info: BINARY OUTPUT FILES WILL BE USED
Info: RESTART FILENAME       smd_out.restart
Info: RESTART FREQUENCY      25000
Info: BINARY RESTART FILES WILL BE USED
Info: SWITCHING ACTIVE
Info: VDW FORCE SWITCHING ACTIVE
Info: SWITCHING ON           15
Info: SWITCHING OFF          16
Info: PAIRLIST DISTANCE      17
Info: PAIRLIST SHRINK RATE   0.01
Info: PAIRLIST GROW RATE     0.01
Info: PAIRLIST TRIGGER       0.3
Info: PAIRLISTS PER CYCLE    2
Info: PAIRLISTS ENABLED
Info: MARGIN                 2
Info: HYDROGEN GROUP CUTOFF  2.5
Info: PATCH DIMENSION        21.5
Info: ENERGY OUTPUT STEPS    500
Info: CROSSTERM ENERGY INCLUDED IN DIHEDRAL
Info: TIMING OUTPUT STEPS    500
Info: GBIS GENERALIZED BORN IMPLICIT SOLVENT ACTIVE
Info: GBIS SOLVENT DIELECTRIC: 80
Info: GBIS PROTEIN DIELECTRIC: 1
Info: GBIS COULOMB RADIUS OFFSET: 0.09 Ang
Info: GBIS ION CONCENTRATION: 0.1 M
Info: GBIS DEBYE SCREENING LENGTH: 9.74104 Ang
Info: GBIS DELTA: 1
Info: GBIS BETA: 0.8
Info: GBIS GAMMA: 4.85
Info: GBIS BORN RADIUS CUTOFF: 14 Ang
Info: GBIS MAX BORN RADIUS: 30 Ang
Info: SASA SURFACE TENSION: 0.005 kcal/mol/Ang^2
Info: COLLECTIVE VARIABLES CALCULATION REQUESTED
Info: LANGEVIN DYNAMICS ACTIVE
Info: LANGEVIN TEMPERATURE   300
Info: LANGEVIN USING BBK INTEGRATOR
Info: LANGEVIN DAMPING COEFFICIENT IS 1 INVERSE PS
Info: LANGEVIN DYNAMICS NOT APPLIED TO HYDROGENS
Info: FULL ELECTROSTATIC EVALUATION FREQUENCY      1
Info: USING VERLET I (r-RESPA) MTS SCHEME.
Info: C1 SPLITTING OF LONG RANGE ELECTROSTATICS
Info: PLACING ATOMS IN PATCHES BY HYDROGEN GROUPS
Info: RIGID BONDS TO HYDROGEN : ALL
Info:         ERROR TOLERANCE : 1e-08
Info:          MAX ITERATIONS : 100
Info: RIGID WATER USING SETTLE ALGORITHM
Info: RANDOM NUMBER SEED     1630915338
Info: USE HYDROGEN BONDS?    NO
Info: COORDINATE PDB         my.pdb
Info: STRUCTURE FILE         my.psf
Info: PARAMETER file: CHARMM format!
Info: PARAMETERS             charmm/par_all27_prot_lipid_cmap.prm
Info: USING ARITHMETIC MEAN TO COMBINE L-J SIGMA PARAMETERS
Info: SUMMARY OF PARAMETERS:
Info: 180 BONDS
Info: 447 ANGLES
Info: 566 DIHEDRAL
Info: 46 IMPROPER
Info: 6 CROSSTERM
Info: 119 VDW
Info: 0 VDW_PAIRS
Info: 0 NBTHOLE_PAIRS
Info: STRUCTURE SUMMARY:
Info: 104 ATOMS
Info: 103 BONDS
Info: 183 ANGLES
Info: 251 DIHEDRALS
Info: 22 IMPROPERS
Info: 0 CROSSTERMS
Info: 0 EXCLUSIONS
Info: 53 RIGID BONDS
Info: 259 DEGREES OF FREEDOM
Info: 51 HYDROGEN GROUPS
Info: 4 ATOMS IN LARGEST HYDROGEN GROUP
Info: 51 MIGRATION GROUPS
Info: 4 ATOMS IN LARGEST MIGRATION GROUP
Info: TOTAL MASS = 727.821 amu
Info: TOTAL CHARGE = 6.70552e-08 e
Info: ADDED 536 IMPLICIT EXCLUSIONS
Info: NONBONDED TABLE R-SQUARED SPACING: 0.0625
Info: NONBONDED TABLE SIZE: 833 POINTS
Info: ORIGINAL ATOMS MINMAX IS -2.875 -4.273 -2.585  7.729 3.554 14.989
Info: ADJUSTED ATOMS MINMAX IS -2.10787 -3.865 -1.42175  5.82087 2.425 13.9557
Info: REMOVING COM VELOCITY 1.17373 1.04244 -0.445554
TCL: Minimizing for 500 steps
ETITLE: TS BOND ANGLE DIHED IMPRP ELECT VDW BOUNDARY MISC KINETIC TOTAL TEMP POTENTIAL TOTAL3 TEMPAVG
ENERGY: 0 16.7578 56.7178 25.5042 2.4962 25.9564 -14.8369 0.0000 1.4880 0.0000 114.0833 0.0000 114.0833 114.0833 0.0000
ENERGY: 100 6.7958 25.3735 22.4243 0.4618 19.4389 -21.9483 0.0000 1.4045 0.0000 53.9505 0.0000 53.9505 53.9505 0.0000
ENERGY: 200 5.9422 24.0114 21.0456 0.6913 20.6398 -20.8021 0.0000 1.2518 0.0000 52.7800 0.0000 52.7800 52.7800 0.0000
ENERGY: 300 5.9380 21.8332 20.4521 0.3728 20.1647 -21.2061 0.0000 1.1888 0.0000 48.7435 0.0000 48.7435 48.7435 0.0000
ENERGY: 400 6.1808 23.2608 20.1648 0.3603 18.7063 -22.0006 0.0000 1.0424 0.0000 47.7149 0.0000 47.7149 47.7149 0.0000
ENERGY: 500 5.9212 22.4972 20.0670 0.3436 18.9085 -21.5350 0.0000 0.9763 0.0000 47.1788 0.0000 47.1788 47.1788 0.0000
TCL: Running for 500000 steps
ETITLE: TS BOND ANGLE DIHED IMPRP ELECT VDW BOUNDARY MISC KINETIC TOTAL TEMP POTENTIAL TOTAL3 TEMPAVG
ENERGY: 500 5.9212 22.4972 20.0670 0.3436 18.9085 -21.5350 0.0000 0.9763 0.0000 47.1788 0.0000 47.1788 47.1775 0.0000
ENERGY: 100500 26.0987 51.3493 29.9686 4.0708 28.8254 -13.8716 0.0000 1.4108 78.7215 206.5735 305.9032 127.8520 207.6617 303.1621
ENERGY: 200500 21.1116 65.0626 24.3998 3.6119 29.6514 -10.2489 0.0000 0.1591 65.0837 198.8312 252.9081 133.7475 199.6783 276.7069
ENERGY: 300500 37.6517 52.4416 28.6912 5.2997 31.8929 -7.1933 0.0000 0.1395 81.3129 230.2362 315.9732 148.9232 230.8006 319.7411
ENERGY: 400500 20.7962 52.4841 21.3541 4.4598 36.6184 -9.6498 0.0000 1.4633 81.9470 209.4732 318.4371 127.5262 210.4053 282.8408
ENERGY: 500500 19.1208 58.2068 25.9321 5.4922 38.3292 -1.5431 0.0000 5.3010 80.8860 231.7249 314.3141 150.8390 232.7779 306.6804
